grid_simulations/tests/Result_no_control/output_current_12.csv
# Result_no_control/output_current_12.csv run at 2000-01-01 14:00:00 EST on 907 links
link_name,currA_mag,currA_angle,currB_mag,currB_angle,currC_mag,currC_angle
Source_Impedance,25.842544,-0.360758,20.937670,3.764323,22.507148,1.895088
TR1,25.842544,-0.360758,20.937670,3.764323,22.507148,1.895088
LINE1,714.302509,-0.835028,637.841385,3.317688,472.332796,1.245498
LINE2,714.302509,-0.835028,637.841385,3.317688,472.332796,1.245498
LINE3,714.302509,-0.835028,637.841385,3.317688,472.332796,1.245498
LINE4,714.302509,-0.835028,637.841385,3.317688,472.332796,1.245498
LINE5,714.302509,-0.835028,637.841385,3.317688,472.332796,1.245498
LINE6,714.302509,-0.835028,637.841385,3.317688,472.332796,1.245498
LINE7,714.302509,-0.835028,637.841385,3.317688,472.332796,1.245498
LINE8,714.302509,-0.835028,637.841385,3.317688,472.332796,1.245498
LINE9,714.302509,-0.835028,637.841385,3.317688,472.332796,1.245498
LINE10,714.302509,-0.835028,637.841385,3.317688,472.332796,1.245498
LINE11,714.302509,-0.835028,637.841385,3.317688,472.332796,1.245498
LINE12,714.302509,-0.835028,637.841385,3.317688,472.332796,1.245498
LINE13,714.302509,-0.835028,637.841385,3.317688,472.332796,1.245498
LINE14,714.302509,-0.835028,637.841385,3.317688,472.332796,1.245498
LINE15,0.000000,-0.604006,0.000000,2.421922,0.000000,1.545864
LINE16,714.302509,-0.835028,637.841385,3.317688,472.332796,1.245498
LINE17,0.000000,-0.699673,0.000000,1.165358,0.000000,3.116661
LINE18,714.302509,-0.835028,637.841385,3.317688,472.332796,1.245498
LINE19,0.000000,-0.743762,0.000000,0.563071,0.000000,4.625038
LINE20,714.302509,-0.835028,637.841385,3.317688,472.332796,1.245498
LINE21,0.000000,4.687457,0.000000,0.618569,0.000000,3.116661
LINE22,714.302509,-0.835028,637.841385,3.317688,472.332796,1.245498
LINE23,0.000000,-0.966932,0.000000,0.296819,0.000000,1.716076
LINE24,714.302509,-0.835028,637.841385,3.317688,472.332796,1.245498
LINE25,0.000000,-0.810330,0.000000,0.296819,0.000000,1.639341
LINE26,61.262105,-0.861759,0.000000,3.098285,0.000000,1.465936
LINE27,653.064342,-0.832521,637.841385,3.317688,472.332796,1.245498
LINE28,0.000000,-1.007726,0.000000,0.515488,0.000000,1.631591
LINE29,30.627956,-0.861784,0.000000,-0.285689,0.000000,-1.526429
LINE30,30.634149,-0.861734,0.000000,3.084730,0.000000,1.467395
LINE31,653.064342,-0.832521,637.841385,3.317688,472.332796,1.245498
LINE32,0.000000,-1.059293,0.000000,0.463402,0.000000,1.614951
LINE33,30.627956,-0.861784,0.000000,2.824748,0.000000,1.422725
LINE34,30.634149,-0.861734,0.000000,2.937964,0.000000,0.161420
LINE35,0.000000,-0.084064,62.126961,3.321362,0.000000,1.622520
LINE36,653.064342,-0.832521,575.714888,3.317292,472.332796,1.245498
LINE37,0.000000,-1.155886,0.000000,0.413405,0.000000,1.623831
LINE38,30.634149,-0.861734,0.000000,-1.505662,0.000000,1.438158
LINE39,0.000000,-0.134296,31.064155,3.321367,0.000000,1.616761
LINE40,0.000000,2.916091,31.062806,3.321356,0.000000,1.586680
LINE41,653.064342,-0.832521,575.714888,3.317292,472.332796,1.245498
LINE42,0.000000,0.349964,0.000000,-0.261003,0.000000,4.162319
LINE43,0.000000,-1.317429,0.000000,0.618569,0.000000,1.670219
LINE44,30.634149,-0.861734,0.000000,4.166021,0.000000,-1.469595
LINE45,0.000000,0.149348,31.064155,3.321367,0.000000,1.625050
LINE46,0.000000,1.413398,31.062806,3.321356,0.000000,1.361538
LINE47,653.064342,-0.832521,575.714888,3.317292,472.332796,1.245498
LINE48,0.000000,0.505771,0.000000,-0.198204,0.000000,4.513872
LINE49,0.000000,4.687457,0.000000,0.618569,0.000000,1.592705
LINE50,30.634149,-0.861734,0.000000,0.413822,0.000000,-1.433385
LINE51,0.000000,2.183413,31.064155,3.321367,0.000000,1.824666
LINE52,653.064342,-0.832521,575.714888,3.317292,472.332796,1.245498
LINE53,0.000000,4.434094,0.000000,3.852303,0.000000,4.446056
LINE54,0.000000,0.491197,0.000000,-0.067086,0.000000,4.313546
LINE55,0.000000,-1.215222,0.000000,0.890169,0.000000,1.603835
LINE56,30.634149,-0.861734,0.000000,0.123160,0.000000,4.603055
LINE57,0.000000,0.157448,31.064155,3.321367,0.000000,3.840472
LINE58,653.064342,-0.832521,575.714888,3.317292,472.332796,1.245498
LINE59,0.000000,4.196169,0.000000,4.196169,0.000000,4.559198
LINE60,0.000000,0.416278,0.000000,-0.451995,0.000000,4.370654
LINE61,0.000000,-1.246957,0.000000,0.760466,0.000000,1.608283
LINE62,30.634149,-0.861734,0.000000,0.859509,0.000000,4.478634
LINE63,0.000000,1.270828,31.064155,3.321367,0.000000,-1.390101
LINE64,588.909064,-0.830633,575.714888,3.317292,472.332796,1.245498
LINE65,64.165957,-0.849846,0.000000,1.741032,0.000000,4.623232
LINE66,0.000000,3.485774,0.000000,3.694911,0.000000,-1.163418
LINE67,0.000000,0.604817,0.000000,-0.617291,0.000000,4.306927
LINE68,0.000000,-1.415875,0.000000,0.760466,0.000000,1.617172
LINE69,30.634149,-0.861734,0.000000,2.486609,0.000000,1.415823
LINE70,0.000000,-1.415458,31.064155,3.321367,0.000000,-1.539690
LINE71,588.909064,-0.830633,575.714888,3.317292,472.332796,1.245498
LINE72,32.082979,-0.849846,0.000000,-0.957516,0.000000,4.548363
LINE73,32.082979,-0.849846,0.000000,-0.957981,0.000000,4.568503
LINE74,0.000000,4.115804,0.000000,3.449459,0.000000,2.227639
LINE75,0.000000,1.352901,0.000000,-0.039881,0.000000,4.419115
LINE76,0.000000,4.580721,0.000000,0.800445,0.000000,1.622722
LINE77,0.000000,0.538489,31.064155,3.321367,0.000000,1.505201
LINE78,588.909064,-0.830633,575.714888,3.317292,472.332796,1.245498
LINE79,0.000000,4.389568,0.000000,3.359262,0.000000,1.800159
LINE80,0.000000,1.377309,0.000000,-0.058882,0.000000,4.429608
LINE81,0.000000,4.578304,0.000000,0.750366,0.000000,1.629946
LINE82,0.000000,-0.173559,31.064155,3.321367,0.000000,4.666642
LINE83,588.909064,-0.830633,575.714888,3.317292,472.332796,1.245498
LINE84,0.000000,4.107506,0.000000,3.935969,0.000000,1.120957
LINE85,0.000000,1.306589,0.000000,-0.058498,0.000000,4.430504
LINE86,0.000000,4.644006,0.000000,0.797486,0.000000,1.626654
LINE87,588.909064,-0.830633,575.714888,3.317292,472.332796,1.245498
LINE88,0.000000,0.000000,0.000000,0.000000,0.000000,0.000000
LINE89,0.000000,1.302079,0.000000,-0.144426,0.000000,4.452536
LINE90,0.000000,-1.485071,0.000000,0.717015,0.000000,1.651717
LINE91,588.909064,-0.830633,575.714888,3.317292,472.332796,1.245498
LINE92,0.000000,1.184300,0.000000,0.209599,0.000000,4.523992
LINE93,0.000000,-0.668433,0.000000,0.760466,0.000000,3.116661
LINE94,588.909064,-0.830633,575.714888,3.317292,472.332796,1.245498
LINE95,0.000000,1.767554,0.000000,0.215728,0.000000,4.635885
LINE96,0.000000,4.687457,0.000000,0.438716,0.000000,4.687457
LINE97,588.909064,-0.830633,575.714888,3.317292,472.332796,1.245498
LINE98,0.000000,0.907775,0.000000,-1.080846,0.000000,4.263087
LINE99,0.000000,-0.488580,0.000000,1.545864,0.000000,0.000000
LINE100,588.909064,-0.830633,575.714888,3.317292,472.332796,1.245498
LINE101,0.000000,1.215410,0.000000,-1.352825,0.000000,-0.684604
LINE102,0.000000,0.000000,0.000000,0.000000,0.000000,0.000000
LINE103,32.598141,-0.845867,97.411222,3.322288,62.045049,1.242494
LINE104,556.314927,-0.829740,478.305129,3.316274,410.288070,1.245953
LINE105,0.000000,1.364767,0.000000,-0.815968,0.000000,-0.846415
LINE106,32.598141,-0.845867,97.411222,3.322288,62.045049,1.242494
LINE107,556.314927,-0.829740,478.305129,3.316274,410.288070,1.245953
LINE108,0.000000,1.126796,0.000000,-0.791793,0.000000,-1.217449
LINE109,32.598141,-0.845867,97.411222,3.322288,62.045049,1.242494
LINE110,556.314927,-0.829740,478.305129,3.316274,410.288070,1.245953
LINE111,0.000000,1.208691,0.000000,-0.781654,0.000000,-1.312112
LINE112,32.598141,-0.845867,97.411222,3.322288,62.045049,1.242494
LINE113,556.314927,-0.829740,478.305129,3.316274,410.288070,1.245953
LINE114,0.000000,1.211652,0.000000,-0.775089,0.000000,-1.299179
LINE115,32.598141,-0.845867,97.411222,3.322288,62.045049,1.242494
LINE116,32.929578,-0.843743,65.429442,3.322564,62.368521,1.243903
LINE117,523.388780,-0.828859,412.877186,3.315278,347.919703,1.246320
LINE118,0.000000,1.177088,0.000000,-0.830481,0.000000,-1.235785
LINE119,32.598141,-0.845867,97.411222,3.322288,62.045049,1.242494
LINE120,0.000000,0.800445,0.000000,-0.024932,0.000000,-1.558246
LINE121,32.929578,-0.843743,65.429442,3.322564,62.368521,1.243903
LINE122,523.388780,-0.828859,412.877186,3.315278,347.919703,1.246320
LINE123,0.000000,1.262128,0.000000,-0.827445,0.000000,-1.213200
LINE124,32.598141,-0.845867,97.411222,3.322288,62.045049,1.242494
LINE125,0.000000,0.707883,0.000000,-0.066574,0.000000,-1.561367
LINE126,32.929578,-0.843743,65.429442,3.322564,62.368521,1.243903
LINE127,523.388780,-0.828859,412.877186,3.315278,347.919703,1.246320
LINE128,0.000000,1.131384,0.000000,-0.881317,0.000000,4.691949
LINE129,32.598141,-0.845867,97.411222,3.322288,62.045049,1.242494
LINE130,0.000000,1.267565,0.000000,0.030567,0.000000,-1.558246
LINE131,32.929578,-0.843743,0.000000,2.770279,0.000000,1.560459
LINE132,0.000000,1.707710,65.429442,3.322564,62.368521,1.243903
LINE133,523.388780,-0.828859,412.877186,3.315278,347.919703,1.246320
LINE134,0.000000,1.207894,0.000000,-0.954310,0.000000,4.610483
LINE135,32.598141,-0.845867,97.411222,3.322288,62.045049,1.242494
LINE136,0.000000,1.005445,0.000000,0.030567,0.000000,-1.562259
LINE137,32.929578,-0.843743,0.000000,2.835707,0.000000,1.555364
LINE138,0.000000,1.707627,65.429442,3.322564,62.368521,1.243903
LINE139,523.388780,-0.828859,412.877186,3.315278,347.919703,1.246320
LINE140,0.000000,1.330391,0.000000,-0.896384,0.000000,4.683835
LINE141,32.598141,-0.845867,97.411222,3.322288,62.045049,1.242494
LINE142,0.000000,0.851126,0.000000,-0.024932,0.000000,-1.566719
LINE143,32.929578,-0.843743,0.000000,2.871708,0.000000,1.550759
LINE144,0.000000,1.705514,65.429442,3.322564,62.368521,1.243903
LINE145,523.388780,-0.828859,412.877186,3.315278,347.919703,1.246320
LINE146,0.000000,1.221493,0.000000,-1.012618,0.000000,4.413567
LINE147,32.598141,-0.845867,97.411222,3.322288,62.045049,1.242494
LINE148,0.000000,1.197093,0.000000,0.046376,0.000000,-1.569692
LINE149,32.929578,-0.843743,0.000000,2.866283,0.000000,1.548441
LINE150,0.000000,1.683851,0.000000,0.634816,62.368521,1.243903
LINE151,0.000000,4.199845,65.429442,3.322564,0.000000,-1.470397
LINE152,523.388780,-0.828859,412.877186,3.315278,347.919703,1.246320
LINE153,0.000000,1.765980,0.000000,-0.888117,0.000000,3.560325
LINE154,32.598141,-0.845867,97.411222,3.322288,62.045049,1.242494
LINE155,0.000000,1.140973,0.000000,0.116965,0.000000,4.703081
LINE156,32.929578,-0.843743,0.000000,2.867077,0.000000,1.543970
LINE157,0.000000,1.685189,0.000000,0.644283,62.368521,1.243903
LINE158,0.000000,4.089708,65.429442,3.322564,0.000000,-1.457830
LINE159,523.388780,-0.828859,412.877186,3.315278,347.919703,1.246320
LINE160,0.000000,1.642646,0.000000,4.032331,0.000000,1.920940
LINE161,0.000000,2.010246,32.388872,3.322075,0.000000,1.528349
LINE162,32.598141,-0.845867,65.022352,3.322394,62.045049,1.242494
LINE163,0.000000,1.005445,0.000000,0.046376,0.000000,4.687457
LINE164,32.929578,-0.843743,0.000000,2.906787,0.000000,1.543420
LINE165,0.000000,1.681977,0.000000,0.653666,62.368521,1.243903
LINE166,0.000000,3.923399,65.429442,3.322564,0.000000,-1.501314
LINE167,523.388780,-0.828859,412.877186,3.315278,347.919703,1.246320
LINE168,0.000000,0.566977,0.000000,0.566977,0.000000,1.392898
LINE169,0.000000,0.716439,32.388872,3.322075,0.000000,1.590759
LINE170,32.598141,-0.845867,65.022352,3.322394,62.045049,1.242494
LINE171,0.000000,0.957862,0.000000,-0.149287,0.000000,3.116661
LINE172,32.929578,-0.843743,0.000000,2.854078,0.000000,1.543754
LINE173,0.000000,1.744120,0.000000,0.595956,0.000000,1.514011
LINE174,0.000000,-0.460398,0.000000,2.469242,62.368521,1.243903
LINE175,0.000000,3.202987,65.429442,3.322564,0.000000,-1.470579
LINE176,523.388780,-0.828859,412.877186,3.315278,347.919703,1.246320
LINE177,0.000000,-1.322010,32.388872,3.322075,0.000000,-1.090904
LINE178,32.598141,-0.845867,65.022352,3.322394,0.000000,3.522192
LINE179,0.000000,4.344523,0.000000,3.667128,62.045049,1.242494
LINE180,0.000000,0.760466,0.000000,-0.488580,0.000000,3.116661
LINE181,32.929578,-0.843743,0.000000,2.756780,0.000000,1.543308
LINE182,0.000000,1.755959,0.000000,0.513294,0.000000,1.516616
LINE183,0.000000,-0.455609,0.000000,2.344436,62.368521,1.243903
LINE184,0.000000,3.241535,65.429442,3.322564,0.000000,-1.356654
LINE185,523.388780,-0.828859,412.877186,3.315278,347.919703,1.246320
LINE186,32.598141,-0.845867,65.022352,3.322394,0.000000,2.374204
LINE187,0.000000,4.332946,0.000000,3.696252,62.045049,1.242494
LINE188,0.000000,0.618569,0.000000,4.687457,0.000000,1.545864
LINE189,32.929578,-0.843743,0.000000,2.678879,0.000000,1.536117
LINE190,0.000000,2.026558,0.000000,-0.094759,0.000000,4.441549
LINE191,0.000000,1.741306,0.000000,0.673982,0.000000,1.466552
LINE192,0.000000,-0.490028,0.000000,2.365881,62.368521,1.243903
LINE193,0.000000,3.158677,65.429442,3.322564,0.000000,-1.408415
LINE194,523.388780,-0.828859,412.877186,3.315278,347.919703,1.246320
LINE195,32.598141,-0.845867,65.022352,3.322394,0.000000,2.551456
LINE196,0.000000,2.445568,0.000000,2.253075,31.019471,1.242469
LINE197,0.000000,4.335306,0.000000,3.696676,31.025577,1.242518
LINE198,0.000000,1.545864,0.000000,3.116661,0.000000,0.000000
LINE199,32.929578,-0.843743,0.000000,2.710572,0.000000,1.541364
LINE200,0.000000,-1.512637,0.000000,2.425309,0.000000,2.306012
LINE201,0.000000,1.579279,0.000000,0.635430,0.000000,1.464283
LINE202,0.000000,-0.627326,0.000000,2.367174,62.368521,1.243903
LINE203,0.000000,3.284713,65.429442,3.322564,0.000000,-1.420248
LINE204,523.388780,-0.828859,412.877186,3.315278,347.919703,1.246320
LINE205,32.598141,-0.845867,0.000000,2.886013,0.000000,4.356374
LINE206,0.000000,4.029622,65.022352,3.322394,0.000000,2.767650
LINE207,0.000000,2.692110,0.000000,4.036804,31.019471,1.242469
LINE208,0.000000,3.420800,0.000000,3.420800,31.025577,1.242518
LINE209,0.000000,1.545864,0.000000,3.580308,0.000000,1.577104
LINE210,32.929578,-0.843743,0.000000,2.718953,0.000000,1.536660
LINE211,0.000000,1.781026,0.000000,0.615530,0.000000,1.369085
LINE212,0.000000,-0.615040,0.000000,2.211418,62.368521,1.243903
LINE213,0.000000,3.276964,65.429442,3.322564,0.000000,-1.463474
LINE214,523.388780,-0.828859,412.877186,3.315278,347.919703,1.246320
LINE215,32.598141,-0.845867,0.000000,0.980326,0.000000,1.606569
LINE216,0.000000,4.349341,65.022352,3.322394,0.000000,2.230805
LINE217,0.000000,-1.486873,0.000000,3.720352,31.025577,1.242518
LINE218,0.000000,0.000000,0.000000,0.000000,0.000000,3.116661
LINE219,32.929578,-0.843743,0.000000,2.729491,0.000000,1.537135
LINE220,0.000000,1.735676,0.000000,0.462235,0.000000,1.373045
LINE221,0.000000,-0.807079,0.000000,2.383909,62.368521,1.243903
LINE222,0.000000,3.374706,65.429442,3.322564,0.000000,-1.471740
LINE223,523.388780,-0.828859,412.877186,3.315278,347.919703,1.246320
LINE224,32.598141,-0.845867,0.000000,-0.188629,0.000000,1.583704
LINE225,0.000000,-0.090288,65.022352,3.322394,0.000000,3.984067
LINE226,0.000000,3.875718,0.000000,2.835542,31.025577,1.242518
LINE227,32.929578,-0.843743,0.000000,2.832418,0.000000,1.553410
LINE228,0.000000,1.791962,0.000000,0.497890,0.000000,1.220878
LINE229,0.000000,-0.845789,0.000000,2.297788,62.368521,1.243903
LINE230,0.000000,3.364824,65.429442,3.322564,0.000000,-1.425427
LINE231,523.388780,-0.828859,412.877186,3.315278,347.919703,1.246320
LINE232,0.000000,-0.110473,65.022352,3.322394,0.000000,1.943989
LINE233,0.000000,2.226502,0.000000,-0.289504,0.000000,1.125067
LINE234,0.000000,4.664146,0.000000,-1.431919,31.025577,1.242518
LINE235,32.929578,-0.843743,0.000000,2.857442,0.000000,1.527515
LINE236,0.000000,1.892830,0.000000,0.465352,0.000000,1.289891
LINE237,0.000000,-0.899009,0.000000,2.426902,62.368521,1.243903
LINE238,0.000000,3.202352,65.429442,3.322564,0.000000,-1.455912
LINE239,523.388780,-0.828859,412.877186,3.315278,347.919703,1.246320
LINE240,0.000000,-0.344803,65.022352,3.322394,0.000000,1.558267
LINE241,0.000000,2.783045,0.000000,4.645334,31.025577,1.242518
LINE242,32.929578,-0.843743,0.000000,3.045524,0.000000,1.529246
LINE243,0.000000,0.758187,0.000000,0.433069,0.000000,1.365002
LINE244,0.000000,-0.802972,0.000000,2.538409,62.368521,1.243903
LINE245,0.000000,3.281043,65.429442,3.322564,0.000000,-1.466086
LINE246,523.388780,-0.828859,412.877186,3.315278,347.919703,1.246320
LINE247,0.000000,3.013874,32.511176,3.322394,0.000000,4.686219
LINE248,0.000000,3.013931,32.511176,3.322394,0.000000,4.558750
LINE249,0.000000,4.074591,0.000000,1.748337,31.025577,1.242518
LINE250,32.929578,-0.843743,0.000000,2.875668,0.000000,1.570956
LINE251,0.000000,0.938363,0.000000,-0.072048,0.000000,1.362259
LINE252,0.000000,-0.953441,0.000000,2.295525,62.368521,1.243903
LINE253,0.000000,3.316414,65.429442,3.322564,0.000000,-1.465865
LINE254,33.672092,-0.840531,0.000000,0.090948,0.000000,3.893142
LINE255,489.719140,-0.828057,412.877186,3.315278,347.919703,1.246320
LINE256,0.000000,1.217846,0.000000,-0.961391,31.025577,1.242518
LINE257,32.929578,-0.843743,0.000000,1.876165,0.000000,1.757086
LINE258,0.000000,1.326753,0.000000,-0.560888,0.000000,1.182258
LINE259,0.000000,-1.050543,0.000000,2.237579,62.368521,1.243903
LINE260,0.000000,3.360503,65.429442,3.322564,0.000000,-1.443221
LINE261,33.672092,-0.840531,0.000000,0.080192,0.000000,3.887693
LINE262,489.719140,-0.828057,412.877186,3.315278,347.919703,1.246320
LINE263,0.000000,3.304725,0.000000,3.309452,31.025577,1.242518
LINE264,32.929578,-0.843743,0.000000,0.213430,0.000000,-1.312668
LINE265,0.000000,1.318968,0.000000,-1.414315,0.000000,1.047534
LINE266,0.000000,-1.065444,0.000000,2.187556,62.368521,1.243903
LINE267,0.000000,-0.751263,32.720349,3.322606,0.000000,4.579360
LINE268,0.000000,3.556546,32.709093,3.322521,0.000000,-1.460323
LINE269,33.672092,-0.840531,0.000000,0.113300,0.000000,3.841990
LINE270,0.000000,-0.353534,0.000000,3.082162,31.383836,1.246567
LINE271,489.719140,-0.828057,412.877186,3.315278,316.535869,1.246296
LINE272,32.929578,-0.843743,0.000000,1.759886,0.000000,1.285170
LINE273,0.000000,1.582073,0.000000,-0.684500,0.000000,1.410033
LINE274,0.000000,4.660928,0.000000,2.160684,62.368521,1.243903
LINE275,0.000000,0.358727,32.720349,3.322606,0.000000,1.565617
LINE276,0.000000,3.435611,32.709093,3.322521,0.000000,-1.361951
LINE277,33.672092,-0.840531,0.000000,0.149812,0.000000,4.041098
LINE278,0.000000,-0.359247,0.000000,3.138552,31.383836,1.246567
LINE279,489.719140,-0.828057,412.877186,3.315278,316.535869,1.246296
LINE280,32.929578,-0.843743,0.000000,2.904154,0.000000,1.543295
LINE281,0.000000,0.544152,0.000000,3.676917,0.000000,2.152052
LINE282,0.000000,4.224218,0.000000,2.180361,62.368521,1.243903
LINE283,0.000000,3.498456,32.709093,3.322521,0.000000,-1.494529
LINE284,33.672092,-0.840531,0.000000,0.246642,0.000000,4.015737
LINE285,0.000000,-0.307469,0.000000,3.239511,31.383836,1.246567
LINE286,245.024812,-0.826516,137.106553,3.310686,62.617658,1.247753
LINE287,244.694910,-0.829600,275.772797,3.317561,253.918294,1.245936
LINE288,32.929578,-0.843743,0.000000,-0.004893,0.000000,-1.519279
LINE289,0.000000,1.369956,0.000000,-0.872318,0.000000,1.416522
LINE290,0.000000,2.967945,0.000000,0.559032,31.193135,1.243973
LINE291,0.000000,4.706730,0.000000,2.564575,31.175386,1.243833
LINE292,0.000000,1.945873,32.709093,3.322521,0.000000,-1.503272
LINE293,33.672092,-0.840531,0.000000,0.118841,0.000000,3.327841
LINE294,0.000000,-0.331257,0.000000,3.317788,31.383836,1.246567
LINE295,245.024812,-0.826516,137.106553,3.310686,62.617658,1.247753
LINE296,244.694910,-0.829600,275.772797,3.317561,253.918294,1.245936
LINE297,0.000000,0.931082,0.000000,3.247426,31.193135,1.243973
LINE298,0.000000,-0.902428,0.000000,3.037210,31.175386,1.243833
LINE299,0.000000,2.523957,32.709093,3.322521,0.000000,4.676095
LINE300,33.672092,-0.840531,0.000000,0.119304,0.000000,3.778809
LINE301,0.000000,-0.214298,0.000000,3.249297,31.383836,1.246567
LINE302,245.024812,-0.826516,137.106553,3.310686,62.617658,1.247753
LINE303,244.694910,-0.829600,275.772797,3.317561,253.918294,1.245936
LINE304,0.000000,2.618420,0.000000,2.982132,31.193135,1.243973
LINE305,0.000000,2.052479,0.000000,-0.266028,31.175386,1.243833
LINE306,0.000000,4.172219,32.709093,3.322521,0.000000,1.582382
LINE307,33.672092,-0.840531,0.000000,0.033105,0.000000,2.545441
LINE308,0.000000,-0.085795,0.000000,3.156082,31.383836,1.246567
LINE309,245.024812,-0.826516,137.106553,3.310686,62.617658,1.247753
LINE310,244.694910,-0.829600,275.772797,3.317561,253.918294,1.245936
LINE311,0.000000,0.591549,0.000000,0.015887,31.193135,1.243973
LINE312,0.000000,2.080473,0.000000,-0.016678,31.175386,1.243833
LINE313,0.000000,2.798295,32.709093,3.322521,0.000000,4.409475
LINE314,33.672092,-0.840531,0.000000,0.052176,0.000000,3.418634
LINE315,0.000000,0.076181,0.000000,2.477599,31.383836,1.246567
LINE316,68.295823,-0.837072,0.000000,2.422183,0.000000,-1.455563
LINE317,176.734266,-0.822436,137.106553,3.310686,62.617658,1.247753
LINE318,244.694910,-0.829600,275.772797,3.317561,253.918294,1.245936
LINE319,0.000000,1.236105,0.000000,2.697423,31.193135,1.243973
LINE320,0.000000,3.195510,0.000000,0.586878,31.175386,1.243833
LINE321,33.672092,-0.840531,0.000000,0.012642,0.000000,3.644571
LINE322,0.000000,-1.118143,0.000000,0.725813,31.383836,1.246567
LINE323,68.295823,-0.837072,0.000000,2.443268,0.000000,-1.443181
LINE324,176.734266,-0.822436,137.106553,3.310686,62.617658,1.247753
LINE325,244.694910,-0.829600,275.772797,3.317561,253.918294,1.245936
LINE326,0.000000,3.740635,0.000000,3.083780,31.175386,1.243833
LINE327,33.672092,-0.840531,0.000000,-0.011609,0.000000,2.475996
LINE328,0.000000,-1.138442,0.000000,0.780274,31.383836,1.246567
LINE329,68.295823,-0.837072,0.000000,2.487614,0.000000,-1.448767
LINE330,0.000000,-0.567726,0.000000,3.177425,31.379713,1.247916
LINE331,176.734266,-0.822436,137.106553,3.310686,31.237946,1.247590
LINE332,244.694910,-0.829600,275.772797,3.317561,253.918294,1.245936
LINE333,33.672092,-0.840531,0.000000,0.041087,0.000000,2.259711
LINE334,0.000000,4.076133,0.000000,0.514756,31.383836,1.246567
LINE335,68.295823,-0.837072,0.000000,2.585718,0.000000,-1.459682
LINE336,0.000000,3.913362,0.000000,3.913362,31.379713,1.247916
LINE337,0.000000,-0.558394,33.589720,3.314427,0.000000,4.167097
LINE338,176.734266,-0.822436,103.517144,3.309472,31.237946,1.247590
LINE339,244.694910,-0.829600,275.772797,3.317561,253.918294,1.245936
LINE340,33.672092,-0.840531,0.000000,0.089405,0.000000,2.119544
LINE341,0.000000,3.547657,0.000000,2.983572,31.383836,1.246567
LINE342,34.137684,-0.837146,0.000000,-0.238368,0.000000,4.514238
LINE343,34.158139,-0.836998,0.000000,2.655072,0.000000,-1.364298
LINE344,0.000000,-0.562419,33.589720,3.314427,0.000000,4.159090
LINE345,176.734266,-0.822436,103.517144,3.309472,31.237946,1.247590
LINE346,244.694910,-0.829600,275.772797,3.317561,253.918294,1.245936
LINE347,33.672092,-0.840531,0.000000,-0.187652,0.000000,2.804455
LINE348,34.137684,-0.837146,0.000000,2.495347,0.000000,1.526229
LINE349,34.158139,-0.836998,0.000000,2.518957,0.000000,-1.314334
LINE350,0.000000,-0.549325,33.589720,3.314427,0.000000,4.092641
LINE351,176.734266,-0.822436,103.517144,3.309472,31.237946,1.247590
LINE352,244.694910,-0.829600,275.772797,3.317561,253.918294,1.245936
LINE353,33.672092,-0.840531,0.000000,0.090813,0.000000,4.325407
LINE354,34.158139,-0.836998,0.000000,3.091450,0.000000,-1.514518
LINE355,0.000000,-0.435462,33.589720,3.314427,0.000000,4.567310
LINE356,176.734266,-0.822436,103.517144,3.309472,31.237946,1.247590
LINE357,244.694910,-0.829600,275.772797,3.317561,253.918294,1.245936
LINE358,33.672092,-0.840531,0.000000,-0.338080,0.000000,4.372286
LINE359,34.158139,-0.836998,0.000000,0.533302,0.000000,-1.500988
LINE360,0.000000,-0.465822,33.589720,3.314427,0.000000,4.629257
LINE361,176.734266,-0.822436,103.517144,3.309472,31.237946,1.247590
LINE362,244.694910,-0.829600,275.772797,3.317561,253.918294,1.245936
LINE363,33.672092,-0.840531,0.000000,2.829136,0.000000,1.572860
LINE364,34.158139,-0.836998,0.000000,0.841110,0.000000,-1.552485
LINE365,0.000000,-1.036881,33.589720,3.314427,0.000000,4.568491
LINE366,176.734266,-0.822436,103.517144,3.309472,31.237946,1.247590
LINE367,244.694910,-0.829600,275.772797,3.317561,253.918294,1.245936
LINE368,33.672092,-0.840531,0.000000,3.673386,0.000000,1.823905
LINE369,34.158139,-0.836998,0.000000,2.022060,0.000000,4.650096
LINE370,0.000000,-0.977458,33.589720,3.314427,0.000000,4.568681
LINE371,176.734266,-0.822436,103.517144,3.309472,31.237946,1.247590
LINE372,244.694910,-0.829600,275.772797,3.317561,253.918294,1.245936
LINE373,33.672092,-0.840531,0.000000,0.856322,0.000000,1.508419
LINE374,34.158139,-0.836998,0.000000,0.447534,0.000000,1.521334
LINE375,0.000000,-0.697654,33.589720,3.314427,0.000000,4.470246
LINE376,176.734266,-0.822436,103.517144,3.309472,31.237946,1.247590
LINE377,244.694910,-0.829600,275.772797,3.317561,222.390985,1.245786
LINE378,0.000000,3.357338,0.000000,1.244291,31.527330,1.246998
LINE379,33.672092,-0.840531,0.000000,2.261034,0.000000,4.682103
LINE380,34.158139,-0.836998,0.000000,-0.164680,0.000000,1.692986
LINE381,0.000000,-0.794476,33.589720,3.314427,0.000000,4.489372
LINE382,176.734266,-0.822436,103.517144,3.309472,31.237946,1.247590
LINE383,244.694910,-0.829600,275.772797,3.317561,222.390985,1.245786
LINE384,0.000000,-0.448249,0.000000,-0.538315,31.527330,1.246998
LINE385,0.000000,3.330977,0.000000,1.627487,0.000000,1.472917
LINE386,33.672092,-0.840531,0.000000,3.293941,0.000000,1.646090
LINE387,34.158139,-0.836998,0.000000,3.404625,0.000000,1.590492
LINE388,0.000000,-1.267484,33.589720,3.314427,0.000000,4.529713
LINE389,176.734266,-0.822436,103.517144,3.309472,31.237946,1.247590
LINE390,244.694910,-0.829600,275.772797,3.317561,222.390985,1.245786
LINE391,0.000000,-0.465623,0.000000,-0.540844,31.527330,1.246998
LINE392,0.000000,3.331013,0.000000,1.618045,0.000000,1.476467
LINE393,0.000000,3.757099,33.589720,3.314427,0.000000,4.682319
LINE394,176.734266,-0.822436,103.517144,3.309472,31.237946,1.247590
LINE395,0.000000,1.527859,0.000000,0.294418,63.248541,1.247162
LINE396,244.694910,-0.829600,275.772797,3.317561,159.142528,1.245239
LINE397,0.000000,-0.233868,0.000000,-0.759067,31.527330,1.246998
LINE398,0.000000,3.459252,0.000000,1.480149,0.000000,1.487981
LINE399,0.000000,4.167186,33.589720,3.314427,0.000000,-0.522684
LINE400,176.734266,-0.822436,103.517144,3.309472,31.237946,1.247590
LINE401,0.000000,1.653128,0.000000,0.302545,63.248541,1.247162
LINE402,244.694910,-0.829600,275.772797,3.317561,159.142528,1.245239
LINE403,0.000000,3.444144,0.000000,-1.223659,31.527330,1.246998
LINE404,0.000000,3.985313,0.000000,1.813039,0.000000,1.496528
LINE405,0.000000,0.953085,33.589720,3.314427,0.000000,4.040788
LINE406,176.734266,-0.822436,103.517144,3.309472,31.237946,1.247590
LINE407,0.000000,1.652456,0.000000,0.230870,63.248541,1.247162
LINE408,244.694910,-0.829600,275.772797,3.317561,159.142528,1.245239
LINE409,0.000000,0.386933,0.000000,3.240500,0.000000,1.672697
LINE410,0.000000,3.893752,0.000000,-0.032175,31.527330,1.246998
LINE411,0.000000,3.255958,0.000000,2.280911,0.000000,1.433099
LINE412,176.734266,-0.822436,103.517144,3.309472,31.237946,1.247590
LINE413,0.000000,1.519118,0.000000,0.214312,63.248541,1.247162
LINE414,244.694910,-0.829600,275.772797,3.317561,159.142528,1.245239
LINE415,0.000000,0.182326,0.000000,3.225390,0.000000,1.657597
LINE416,0.000000,3.114216,0.000000,-0.451057,31.527330,1.246998
LINE417,0.000000,3.263965,0.000000,2.528267,0.000000,1.369266
LINE418,176.734266,-0.822436,103.517144,3.309472,31.237946,1.247590
LINE419,0.000000,1.350569,0.000000,0.149317,63.248541,1.247162
LINE420,244.694910,-0.829600,275.772797,3.317561,159.142528,1.245239
LINE421,0.000000,0.159726,0.000000,3.259014,0.000000,1.907624
LINE422,0.000000,3.519247,0.000000,-0.078012,31.527330,1.246998
LINE423,0.000000,3.305888,0.000000,2.574813,0.000000,1.444525
LINE424,176.734266,-0.822436,103.517144,3.309472,31.237946,1.247590
LINE425,0.000000,-0.201681,0.000000,3.001958,0.000000,4.587237
LINE426,0.000000,1.249852,0.000000,0.143606,63.248541,1.247162
LINE427,244.694910,-0.829600,275.772797,3.317561,159.142528,1.245239
LINE428,0.000000,-0.028051,0.000000,3.379325,0.000000,1.787255
LINE429,0.000000,2.843866,0.000000,0.089347,31.527330,1.246998
LINE430,0.000000,3.252043,0.000000,2.633241,0.000000,1.438104
LINE431,176.734266,-0.822436,103.517144,3.309472,31.237946,1.247590
LINE432,0.000000,3.297506,0.000000,-1.193993,0.000000,0.258342
LINE433,0.000000,1.210654,0.000000,0.143985,63.248541,1.247162
LINE434,244.694910,-0.829600,275.772797,3.317561,159.142528,1.245239
LINE435,0.000000,-0.015365,0.000000,3.409089,0.000000,1.751704
LINE436,0.000000,0.658951,0.000000,0.149268,31.527330,1.246998
LINE437,0.000000,3.342850,0.000000,2.515717,0.000000,1.440363
LINE438,176.734266,-0.822436,103.517144,3.309472,31.237946,1.247590
LINE439,0.000000,-0.201681,0.000000,-0.201681,0.000000,2.996186
LINE440,0.000000,1.222563,0.000000,0.145519,63.248541,1.247162
LINE441,244.694910,-0.829600,275.772797,3.317561,159.142528,1.245239
LINE442,0.000000,-0.190325,0.000000,3.595513,0.000000,1.845993
LINE443,0.000000,3.043750,0.000000,2.784513,31.527330,1.246998
LINE444,0.000000,3.378377,0.000000,2.427585,0.000000,1.394008
LINE445,176.734266,-0.822436,103.517144,3.309472,31.237946,1.247590
LINE446,0.000000,2.997281,0.000000,-0.201681,0.000000,-0.216139
LINE447,0.000000,1.379088,0.000000,0.133035,63.248541,1.247162
LINE448,244.694910,-0.829600,275.772797,3.317561,159.142528,1.245239
LINE449,0.000000,-0.018530,0.000000,3.726892,0.000000,1.743670
LINE450,0.000000,2.325458,0.000000,3.631255,31.527330,1.246998
LINE451,0.000000,3.428228,0.000000,2.471319,0.000000,1.429373
LINE452,176.734266,-0.822436,103.517144,3.309472,31.237946,1.247590
LINE453,0.000000,1.353492,0.000000,4.690895,0.000000,4.549467
LINE454,0.000000,1.197095,0.000000,0.125875,63.248541,1.247162
LINE455,244.694910,-0.829600,275.772797,3.317561,159.142528,1.245239
LINE456,0.000000,-0.113633,0.000000,3.670857,0.000000,2.237866
LINE457,0.000000,4.618979,0.000000,1.556616,31.527330,1.246998
LINE458,0.000000,3.287136,0.000000,2.411083,0.000000,1.417032
LINE459,141.630603,-0.821633,103.517144,3.309472,31.237946,1.247590
LINE460,0.000000,4.172642,0.000000,4.172642,0.000000,1.087324
LINE461,35.103892,-0.825677,0.000000,2.876776,0.000000,-1.442087
LINE462,0.000000,1.295669,0.000000,0.141065,63.248541,1.247162
LINE463,244.694910,-0.829600,275.772797,3.317561,159.142528,1.245239
LINE464,0.000000,-0.662160,0.000000,3.789729,0.000000,1.869023
LINE465,0.000000,3.446827,0.000000,2.495052,0.000000,1.423397
LINE466,141.630603,-0.821633,103.517144,3.309472,31.237946,1.247590
LINE467,0.000000,4.508023,0.000000,4.543337,0.000000,1.169872
LINE468,0.000000,-1.089631,0.000000,2.877727,0.000000,4.703549
LINE469,35.103892,-0.825677,0.000000,2.903010,0.000000,-1.473612
LINE470,0.000000,1.343576,0.000000,0.130698,63.248541,1.247162
LINE471,244.694910,-0.829600,275.772797,3.317561,159.142528,1.245239
LINE472,0.000000,-0.448820,0.000000,3.890168,0.000000,2.270909
LINE473,0.000000,3.458548,0.000000,2.387000,0.000000,1.418092
LINE474,141.630603,-0.821633,103.517144,3.309472,31.237946,1.247590
LINE475,0.000000,0.896302,0.000000,2.389360,0.000000,4.645671
LINE476,35.103892,-0.825677,0.000000,2.659767,0.000000,-1.388488
LINE477,0.000000,1.318895,0.000000,0.144976,63.248541,1.247162
LINE478,244.694910,-0.829600,275.772797,3.317561,159.142528,1.245239
LINE479,0.000000,-1.094427,0.000000,4.458072,0.000000,2.003602
LINE480,0.000000,3.566162,0.000000,2.481428,0.000000,1.438295
LINE481,70.896043,-0.820604,103.517144,3.309472,31.237946,1.247590
LINE482,0.000000,1.408438,0.000000,4.564272,0.000000,4.598223
LINE483,70.734636,-0.822665,0.000000,0.971121,0.000000,-1.532793
LINE484,35.103892,-0.825677,0.000000,2.305172,0.000000,-1.523534
LINE485,0.000000,1.358140,0.000000,0.124244,63.248541,1.247162
LINE486,244.694910,-0.829600,275.772797,3.317561,159.142528,1.245239
LINE487,0.000000,-0.701391,0.000000,-1.504205,0.000000,2.045015
LINE488,0.000000,3.893510,0.000000,3.075970,0.000000,1.476492
LINE489,70.896043,-0.820604,103.517144,3.309472,31.237946,1.247590
LINE490,0.000000,-0.201681,0.000000,-0.201681,0.000000,2.996186
LINE491,35.363457,-0.822692,0.000000,0.948698,0.000000,-1.531879
LINE492,35.371179,-0.822638,0.000000,2.850756,0.000000,-1.550229
LINE493,35.103892,-0.825677,0.000000,2.452010,0.000000,-1.436321
LINE494,0.000000,1.491197,0.000000,0.138317,63.248541,1.247162
LINE495,244.694910,-0.829600,275.772797,3.317561,159.142528,1.245239
LINE496,0.000000,-0.872719,0.000000,-1.468475,0.000000,1.996604
LINE497,0.000000,3.563695,0.000000,2.615100,0.000000,1.524435
LINE498,70.896043,-0.820604,103.517144,3.309472,31.237946,1.247590
LINE499,0.000000,0.000000,0.000000,0.000000,0.000000,0.000000
LINE500,35.363457,-0.822692,0.000000,0.713100,0.000000,4.687757
LINE501,35.371179,-0.822638,0.000000,3.840408,0.000000,1.549043
LINE502,35.103892,-0.825677,0.000000,2.195200,0.000000,-1.434549
LINE503,0.000000,2.226155,0.000000,0.048986,63.248541,1.247162
LINE504,244.694910,-0.829600,275.772797,3.317561,159.142528,1.245239
LINE505,0.000000,-1.027335,0.000000,-1.336762,0.000000,1.995337
LINE506,0.000000,2.992017,0.000000,2.992017,0.000000,-0.075346
LINE507,70.896043,-0.820604,103.517144,3.309472,31.237946,1.247590
LINE508,0.000000,2.939912,0.000000,2.939912,0.000000,-0.145406
LINE509,35.363457,-0.822692,0.000000,1.254265,0.000000,1.521871
LINE510,35.103892,-0.825677,0.000000,2.432705,0.000000,-1.332502
LINE511,0.000000,2.361839,0.000000,0.044616,63.248541,1.247162
LINE512,0.000000,2.783031,33.836148,3.317606,0.000000,4.671624
LINE513,244.694910,-0.829600,241.936650,3.317554,159.142528,1.245239
LINE514,0.000000,-1.183189,0.000000,-1.293142,0.000000,1.794054
LINE515,0.000000,1.024898,103.517144,3.309472,31.237946,1.247590
LINE516,0.000000,4.604185,0.000000,4.604185,0.000000,1.518867
LINE517,70.896043,-0.820604,0.000000,3.977018,0.000000,1.470621
LINE518,35.363457,-0.822692,0.000000,0.643496,0.000000,4.460147
LINE519,35.103892,-0.825677,0.000000,2.677912,0.000000,-1.435082
LINE520,0.000000,2.596046,0.000000,-0.006424,63.248541,1.247162
LINE521,0.000000,4.648729,33.836148,3.317606,0.000000,4.640662
LINE522,244.694910,-0.829600,241.936650,3.317554,159.142528,1.245239
LINE523,0.000000,-0.573749,0.000000,4.000715,0.000000,1.802418
LINE524,0.000000,1.008885,103.517144,3.309472,31.237946,1.247590
LINE525,0.000000,-0.201681,0.000000,-0.201681,0.000000,2.996186
LINE526,70.896043,-0.820604,0.000000,3.963696,0.000000,1.470804
LINE527,35.363457,-0.822692,0.000000,0.422015,0.000000,4.702900
LINE528,35.103892,-0.825677,0.000000,2.820315,0.000000,0.546335
LINE529,0.000000,0.489457,0.000000,-0.014670,63.248541,1.247162
LINE530,244.694910,-0.829600,241.936650,3.317554,159.142528,1.245239
LINE531,0.000000,-0.709168,0.000000,4.056143,0.000000,1.806775
LINE532,0.000000,1.018407,103.517144,3.309472,31.237946,1.247590
LINE533,0.000000,0.000000,0.000000,0.000000,0.000000,0.000000
LINE534,70.896043,-0.820604,0.000000,3.991286,0.000000,1.470627
LINE535,35.363457,-0.822692,0.000000,2.338764,0.000000,4.656714
LINE536,35.103892,-0.825677,0.000000,2.894965,0.000000,1.226699
LINE537,0.000000,3.992255,0.000000,3.169759,31.634568,1.247242
LINE538,0.000000,-1.435035,0.000000,-1.435035,31.613973,1.247081
LINE539,244.694910,-0.829600,241.936650,3.317554,159.142528,1.245239
LINE540,0.000000,-0.658278,0.000000,4.322883,0.000000,1.797937
LINE541,0.000000,0.997189,103.517144,3.309472,31.237946,1.247590
LINE542,0.000000,2.609386,0.000000,0.616341,0.000000,-1.558713
LINE543,70.896043,-0.820604,0.000000,3.920720,0.000000,1.474245
LINE544,35.363457,-0.822692,0.000000,4.169776,0.000000,-1.474099
LINE545,35.103892,-0.825677,0.000000,2.969859,0.000000,1.239060
LINE546,0.000000,-1.135900,0.000000,3.198790,31.634568,1.247242
LINE547,244.694910,-0.829600,241.936650,3.317554,159.142528,1.245239
LINE548,0.000000,-0.121823,0.000000,-1.375631,0.000000,1.561297
LINE549,0.000000,0.941224,103.517144,3.309472,31.237946,1.247590
LINE550,0.000000,-0.201681,0.000000,-0.201681,0.000000,2.996186
LINE551,35.447064,-0.820610,0.000000,4.025783,0.000000,1.490934
LINE552,35.448979,-0.820597,0.000000,0.201760,0.000000,4.692416
LINE553,35.363457,-0.822692,0.000000,-0.548914,0.000000,1.646077
LINE554,35.103892,-0.825677,0.000000,2.916912,0.000000,1.004886
LINE555,0.000000,0.570761,0.000000,-0.859043,31.634568,1.247242
LINE556,244.694910,-0.829600,241.936650,3.317554,159.142528,1.245239
LINE557,0.000000,1.178796,0.000000,1.178796,0.000000,3.797853
LINE558,0.000000,0.970839,103.517144,3.309472,31.237946,1.247590
LINE559,0.000000,0.183183,0.000000,3.493513,0.000000,0.895621
LINE560,35.447064,-0.820610,0.000000,3.614388,0.000000,1.482477
LINE561,35.448979,-0.820597,0.000000,0.885958,0.000000,1.484343
LINE562,35.363457,-0.822692,0.000000,2.975599,0.000000,2.661337
LINE563,35.103892,-0.825677,0.000000,2.756551,0.000000,1.203777
LINE564,244.694910,-0.829600,241.936650,3.317554,159.142528,1.245239
LINE565,0.000000,3.029453,0.000000,3.029453,0.000000,-1.296056
LINE566,0.000000,0.660351,34.485790,3.309545,31.237946,1.247590
LINE567,0.000000,-0.540275,0.000000,3.986893,0.000000,4.411331
LINE568,0.000000,3.309048,69.031354,3.309436,0.000000,1.742641
LINE569,35.447064,-0.820610,0.000000,3.567121,0.000000,1.499303
LINE570,35.103892,-0.825677,0.000000,2.671017,0.000000,-0.847474
LINE571,244.694910,-0.829600,241.936650,3.317554,159.142528,1.245239
LINE572,0.000000,0.856571,34.485790,3.309545,31.237946,1.247590
LINE573,0.000000,-1.233783,0.000000,2.370699,0.000000,1.289696
LINE574,0.000000,3.313562,69.031354,3.309436,0.000000,1.735162
LINE575,35.447064,-0.820610,0.000000,3.509299,0.000000,1.549863
LINE576,35.103892,-0.825677,0.000000,2.198685,0.000000,1.273575
LINE577,244.694910,-0.829600,241.936650,3.317554,159.142528,1.245239
LINE578,0.000000,2.611978,34.485790,3.309545,31.237946,1.247590
LINE579,0.000000,-0.176531,0.000000,-0.176531,0.000000,4.237756
LINE580,0.000000,1.255895,0.000000,-0.905723,0.000000,-1.515622
LINE581,0.000000,3.247803,69.031354,3.309436,0.000000,1.650199
LINE582,35.447064,-0.820610,0.000000,3.554494,0.000000,1.478561
LINE583,35.103892,-0.825677,0.000000,2.931563,0.000000,1.433058
LINE584,0.000000,1.881981,33.904610,3.317725,0.000000,1.605534
LINE585,244.694910,-0.829600,208.032040,3.317526,159.142528,1.245239
LINE586,0.000000,2.833352,34.485790,3.309545,31.237946,1.247590
LINE587,0.000000,-1.431836,0.000000,-0.047916,0.000000,4.569619
LINE588,0.000000,0.848322,0.000000,-1.244112,0.000000,-1.452917
LINE589,0.000000,3.152477,69.031354,3.309436,0.000000,1.724778
LINE590,35.447064,-0.820610,0.000000,3.987582,0.000000,4.673754
LINE591,35.103892,-0.825677,0.000000,3.103482,0.000000,-1.460400
LINE592,0.000000,1.712719,33.904610,3.317725,0.000000,1.607986
LINE593,244.694910,-0.829600,208.032040,3.317526,159.142528,1.245239
LINE594,0.000000,-1.018234,34.485790,3.309545,0.000000,-1.378240
LINE595,0.000000,3.771633,0.000000,3.098234,31.237946,1.247590
LINE596,0.000000,0.925338,0.000000,4.105710,0.000000,-1.335900
LINE597,0.000000,3.124385,69.031354,3.309436,0.000000,1.741883
LINE598,35.447064,-0.820610,0.000000,3.125568,0.000000,1.584038
LINE599,35.103892,-0.825677,0.000000,2.876153,0.000000,-1.291317
LINE600,0.000000,2.615869,33.904610,3.317725,0.000000,1.609258
LINE601,0.000000,3.033081,0.000000,0.298022,31.678463,1.245577
LINE602,244.694910,-0.829600,208.032040,3.317526,127.464067,1.245155
LINE603,0.000000,4.412103,34.485790,3.309545,0.000000,-1.452270
LINE604,0.000000,3.555473,0.000000,0.955459,0.000000,1.267139
LINE605,0.000000,3.264817,0.000000,0.392399,0.000000,-0.815617
LINE606,0.000000,-1.140646,0.000000,2.999672,31.237946,1.247590
LINE607,0.000000,-0.149575,0.000000,-0.149575,0.000000,3.066247
LINE608,0.000000,0.802961,0.000000,3.529772,0.000000,-1.400855
LINE609,0.000000,3.123605,69.031354,3.309436,0.000000,1.745588
LINE610,35.447064,-0.820610,0.000000,1.240104,0.000000,-1.546346
LINE611,35.103892,-0.825677,0.000000,2.456803,0.000000,1.440279
LINE612,0.000000,3.272363,33.904610,3.317725,0.000000,1.603594
LINE613,0.000000,2.172871,0.000000,2.687017,31.678463,1.245577
LINE614,244.694910,-0.829600,208.032040,3.317526,127.464067,1.245155
LINE615,0.000000,-0.678245,34.485790,3.309545,0.000000,-1.544064
LINE616,0.000000,1.464724,0.000000,1.424280,0.000000,4.442990
LINE617,0.000000,-0.201681,0.000000,-0.201681,0.000000,2.996186
LINE618,0.000000,-0.376371,0.000000,4.102594,31.237946,1.247590
LINE619,0.000000,1.065738,0.000000,3.934527,0.000000,-1.453639
LINE620,0.000000,3.101273,69.031354,3.309436,0.000000,1.730035
LINE621,35.103892,-0.825677,0.000000,0.311279,0.000000,-1.532528
LINE622,0.000000,3.116708,33.904610,3.317725,0.000000,1.617216
LINE623,0.000000,-0.235736,34.038894,3.316718,0.000000,4.615983
LINE624,244.694910,-0.829600,173.993160,3.317684,127.464067,1.245155
LINE625,0.000000,-0.733488,34.485790,3.309545,0.000000,-1.519558
LINE626,0.000000,0.223048,0.000000,3.662754,0.000000,4.322719
LINE627,0.000000,3.111314,69.031354,3.309436,0.000000,1.843269
LINE628,35.103892,-0.825677,0.000000,3.032466,0.000000,2.273578
LINE629,0.000000,3.078437,33.904610,3.317725,0.000000,1.627274
LINE630,0.000000,0.148208,34.038894,3.316718,0.000000,2.203781
LINE631,244.694910,-0.829600,173.993160,3.317684,127.464067,1.245155
LINE632,0.000000,-0.852917,34.485790,3.309545,0.000000,-1.560348
LINE633,0.000000,0.599305,0.000000,3.578581,0.000000,4.347138
LINE634,0.000000,3.080351,69.031354,3.309436,0.000000,1.768223
LINE635,0.000000,3.057323,33.904610,3.317725,0.000000,1.626509
LINE636,0.000000,-0.321341,34.038894,3.316718,0.000000,1.770772
LINE637,244.694910,-0.829600,173.993160,3.317684,127.464067,1.245155
LINE638,0.000000,0.000000,34.485790,3.309545,0.000000,0.000000
LINE639,0.000000,0.643246,0.000000,4.078052,0.000000,4.349066
LINE640,0.000000,3.046411,69.031354,3.309436,0.000000,1.763258
LINE641,0.000000,3.119295,33.904610,3.317725,0.000000,1.626747
LINE642,0.000000,-0.105898,34.038894,3.316718,0.000000,4.181978
LINE643,244.694910,-0.829600,173.993160,3.317684,127.464067,1.245155
LINE644,0.000000,-0.268107,0.000000,-1.179076,0.000000,3.154897
LINE645,0.000000,3.080932,69.031354,3.309436,0.000000,1.753970
LINE646,0.000000,3.037169,33.904610,3.317725,0.000000,1.634557
LINE647,0.000000,-0.038162,34.038894,3.316718,0.000000,3.773920
LINE648,244.694910,-0.829600,173.993160,3.317684,127.464067,1.245155
LINE649,0.000000,3.069481,0.000000,1.381146,0.000000,2.541480
LINE650,0.000000,2.804294,69.031354,3.309436,0.000000,4.406256
LINE651,0.000000,3.309402,33.904610,3.317725,0.000000,1.638453
LINE652,0.000000,-0.087753,34.038894,3.316718,0.000000,4.531970
LINE653,244.694910,-0.829600,173.993160,3.317684,127.464067,1.245155
LINE654,0.000000,4.050976,0.000000,0.702043,0.000000,3.716288
LINE655,0.000000,2.965189,34.517830,3.309451,0.000000,1.648830
LINE656,0.000000,-0.745025,34.513524,3.309420,0.000000,1.527872
LINE657,0.000000,3.234004,33.904610,3.317725,0.000000,1.648675
LINE658,0.000000,-0.030366,34.038894,3.316718,0.000000,4.604791
LINE659,244.694910,-0.829600,173.993160,3.317684,127.464067,1.245155
LINE660,0.000000,4.046176,0.000000,2.330870,0.000000,-1.447255
LINE661,0.000000,2.009164,34.517830,3.309451,0.000000,1.719833
LINE662,0.000000,-1.320563,34.513524,3.309420,0.000000,1.606440
LINE663,0.000000,3.490594,33.904610,3.317725,0.000000,1.645960
LINE664,0.000000,0.003927,34.038894,3.316718,0.000000,-1.479018
LINE665,244.694910,-0.829600,173.993160,3.317684,127.464067,1.245155
LINE666,0.000000,3.870420,0.000000,0.946480,0.000000,4.639615
LINE667,0.000000,0.769810,34.517830,3.309451,0.000000,4.613190
LINE668,0.000000,-0.043015,34.513524,3.309420,0.000000,4.127253
LINE669,0.000000,3.687018,33.904610,3.317725,0.000000,1.646794
LINE670,0.000000,0.403912,34.038894,3.316718,0.000000,0.245345
LINE671,104.521764,-0.832194,0.000000,1.189154,0.000000,-1.553454
LINE672,140.173761,-0.827666,173.993160,3.317684,127.464067,1.245155
LINE673,0.000000,3.903133,0.000000,2.815033,0.000000,4.410990
LINE674,0.000000,-0.774283,34.517830,3.309451,0.000000,1.537541
LINE675,0.000000,2.772654,34.513524,3.309420,0.000000,4.642395
LINE676,0.000000,3.945125,33.904610,3.317725,0.000000,1.637674
LINE677,0.000000,0.728690,34.038894,3.316718,0.000000,0.230033
LINE678,104.521764,-0.832194,0.000000,1.497159,0.000000,-1.549531
LINE679,140.173761,-0.827666,173.993160,3.317684,127.464067,1.245155
LINE680,0.000000,2.939912,0.000000,2.939912,0.000000,-0.145406
LINE681,0.000000,3.557556,34.517830,3.309451,0.000000,1.533404
LINE682,0.000000,3.917764,33.904610,3.317725,0.000000,1.693474
LINE683,0.000000,-1.551821,34.038894,3.316718,0.000000,1.450780
LINE684,104.521764,-0.832194,0.000000,1.631892,0.000000,-1.523078
LINE685,140.173761,-0.827666,173.993160,3.317684,127.464067,1.245155
LINE686,0.000000,3.892766,33.904610,3.317725,0.000000,1.723498
LINE687,0.000000,-1.497354,34.038894,3.316718,0.000000,1.594321
LINE688,104.521764,-0.832194,0.000000,1.376181,0.000000,-1.544118
LINE689,0.000000,0.039883,0.000000,3.359148,63.581781,1.245908
LINE690,140.173761,-0.827666,173.993160,3.317684,63.882321,1.244406
LINE691,0.000000,4.029874,33.904610,3.317725,0.000000,1.709123
LINE692,104.521764,-0.832194,0.000000,1.306181,0.000000,-1.518359
LINE693,0.000000,0.081440,0.000000,3.350603,31.793124,1.245925
LINE694,0.000000,0.337835,0.000000,3.687471,31.788657,1.245891
LINE695,0.000000,-0.749088,34.271256,3.316416,0.000000,1.365159
LINE696,140.173761,-0.827666,139.721938,3.317995,63.882321,1.244406
LINE697,0.000000,3.499767,33.904610,3.317725,0.000000,1.711852
LINE698,104.521764,-0.832194,0.000000,1.197058,0.000000,-1.543477
LINE699,0.000000,0.107161,0.000000,3.293431,31.793124,1.245925
LINE700,0.000000,1.489746,0.000000,4.663228,31.788657,1.245891
LINE701,0.000000,0.538089,34.271256,3.316416,0.000000,1.708921
LINE702,140.173761,-0.827666,139.721938,3.317995,63.882321,1.244406
LINE703,0.000000,3.441084,33.904610,3.317725,0.000000,1.738278
LINE704,104.521764,-0.832194,0.000000,1.115409,0.000000,-1.546008
LINE705,0.000000,0.072909,0.000000,3.419353,31.793124,1.245925
LINE706,140.173761,-0.827666,139.721938,3.317995,63.882321,1.244406
LINE707,0.000000,2.930823,0.000000,2.390691,0.000000,2.333373
LINE708,0.000000,3.511224,33.904610,3.317725,0.000000,1.738367
LINE709,104.521764,-0.832194,0.000000,1.077489,0.000000,-1.540588
LINE710,0.000000,-0.155863,0.000000,3.441972,31.793124,1.245925
LINE711,70.323478,-0.825280,139.721938,3.317995,63.882321,1.244406
LINE712,69.850685,-0.830069,0.000000,3.192345,0.000000,-1.534803
LINE713,0.000000,2.821118,0.000000,1.818796,0.000000,2.733094
LINE714,0.000000,3.223940,33.904610,3.317725,0.000000,1.799514
LINE715,104.521764,-0.832194,0.000000,1.088943,0.000000,-1.541144
LINE716,0.000000,0.236063,0.000000,3.989858,31.793124,1.245925
LINE717,70.323478,-0.825280,139.721938,3.317995,63.882321,1.244406
LINE718,69.850685,-0.830069,0.000000,3.210143,0.000000,-1.535101
LINE719,0.000000,2.783881,0.000000,2.437461,0.000000,2.257700
LINE720,0.000000,3.809156,33.904610,3.317725,0.000000,1.732415
LINE721,104.521764,-0.832194,0.000000,1.067542,0.000000,-1.539083
LINE722,0.000000,1.975627,0.000000,0.731212,31.793124,1.245925
LINE723,70.323478,-0.825280,70.278149,3.318130,63.882321,1.244406
LINE724,0.000000,0.106926,69.443790,3.317859,0.000000,1.526004
LINE725,69.850685,-0.830069,0.000000,3.087387,0.000000,-1.502885
LINE726,0.000000,2.738079,0.000000,1.890598,0.000000,2.370745
LINE727,0.000000,4.670049,33.904610,3.317725,0.000000,1.806045
LINE728,104.521764,-0.832194,0.000000,1.053821,0.000000,-1.547358
LINE729,0.000000,2.803991,0.000000,3.627905,31.793124,1.245925
LINE730,70.323478,-0.825280,70.278149,3.318130,63.882321,1.244406
LINE731,0.000000,0.099073,69.443790,3.317859,0.000000,1.525015
LINE732,69.850685,-0.830069,0.000000,3.212874,0.000000,-1.513486
LINE733,0.000000,2.850903,0.000000,1.951922,0.000000,3.387923
LINE734,0.000000,4.199925,33.904610,3.317725,0.000000,1.718598
LINE735,104.521764,-0.832194,0.000000,0.976362,0.000000,-1.546294
LINE736,0.000000,0.604603,0.000000,3.434217,31.793124,1.245925
LINE737,70.323478,-0.825280,70.278149,3.318130,63.882321,1.244406
LINE738,0.000000,0.104143,69.443790,3.317859,0.000000,1.526328
LINE739,69.850685,-0.830069,0.000000,3.076625,0.000000,-1.480498
LINE740,0.000000,2.784434,0.000000,1.912300,0.000000,2.547331
LINE741,0.000000,4.588934,33.904610,3.317725,0.000000,1.662930
LINE742,104.521764,-0.832194,0.000000,0.978303,0.000000,-1.557436
LINE743,0.000000,-0.665356,0.000000,-1.333191,31.793124,1.245925
LINE744,70.323478,-0.825280,70.278149,3.318130,63.882321,1.244406
LINE745,0.000000,3.044730,34.725197,3.317883,0.000000,1.619950
LINE746,0.000000,0.069802,34.718593,3.317836,0.000000,1.526381
LINE747,69.850685,-0.830069,0.000000,3.150576,0.000000,-1.324087
LINE748,0.000000,2.456635,0.000000,1.595309,0.000000,2.879404
LINE749,0.000000,4.280126,33.904610,3.317725,0.000000,1.630952
LINE750,104.521764,-0.832194,0.000000,0.916915,0.000000,-1.557606
LINE751,0.000000,0.141729,0.000000,4.303470,31.793124,1.245925
LINE752,70.323478,-0.825280,70.278149,3.318130,0.000000,-1.542558
LINE753,0.000000,-0.804292,0.000000,3.400579,63.882321,1.244406
LINE754,0.000000,2.502430,34.725197,3.317883,0.000000,1.343176
LINE755,0.000000,0.391281,34.718593,3.317836,0.000000,1.533975
LINE756,69.850685,-0.830069,0.000000,3.113949,0.000000,-1.399368
LINE757,0.000000,2.696249,0.000000,1.919889,0.000000,2.332562
LINE758,0.000000,3.486555,33.904610,3.317725,0.000000,1.682357
LINE759,104.521764,-0.832194,0.000000,0.893806,0.000000,-1.562275
LINE760,0.000000,1.646459,0.000000,4.549116,31.793124,1.245925
LINE761,70.323478,-0.825280,70.278149,3.318130,0.000000,-1.518231
LINE762,0.000000,-0.802498,0.000000,3.399721,63.882321,1.244406
LINE763,0.000000,-0.409930,34.718593,3.317836,0.000000,1.557781
LINE764,69.850685,-0.830069,0.000000,3.100886,0.000000,-1.247869
LINE765,0.000000,2.484272,0.000000,1.589762,0.000000,4.395033
LINE766,0.000000,-0.801299,33.904610,3.317725,0.000000,1.623020
LINE767,104.521764,-0.832194,0.000000,1.026616,0.000000,-1.557697
LINE768,0.000000,-0.410988,0.000000,-1.519141,31.793124,1.245925
LINE769,70.323478,-0.825280,70.278149,3.318130,0.000000,-1.543941
LINE770,0.000000,-0.057755,0.000000,3.347219,31.944861,1.244435
LINE771,0.000000,-0.852527,0.000000,3.439375,31.937460,1.244378
LINE772,0.000000,2.462837,34.718593,3.317836,0.000000,1.606204
LINE773,69.850685,-0.830069,0.000000,3.105373,0.000000,-1.136812
LINE774,0.000000,2.991154,0.000000,0.854902,0.000000,4.625472
LINE775,0.000000,2.652202,33.904610,3.317725,0.000000,1.575174
LINE776,104.521764,-0.832194,0.000000,0.977067,0.000000,-1.559924
LINE777,0.000000,-0.538476,0.000000,2.600672,31.793124,1.245925
LINE778,70.323478,-0.825280,70.278149,3.318130,0.000000,-1.539849
LINE779,0.000000,-0.911724,0.000000,2.755416,31.944861,1.244435
LINE780,0.000000,-0.835217,0.000000,3.487263,31.937460,1.244378
LINE781,0.000000,3.269439,34.718593,3.317836,0.000000,-1.545441
LINE782,69.850685,-0.830069,0.000000,3.198312,0.000000,-0.976030
LINE783,0.000000,2.937115,0.000000,0.655235,0.000000,4.673957
LINE784,0.000000,2.366105,33.904610,3.317725,0.000000,-1.487205
LINE785,104.521764,-0.832194,0.000000,0.985924,0.000000,-1.557478
LINE786,70.323478,-0.825280,70.278149,3.318130,0.000000,-1.539218
LINE787,0.000000,-1.055307,0.000000,3.433783,31.937460,1.244378
LINE788,0.000000,1.979182,34.718593,3.317836,0.000000,4.608002
LINE789,69.850685,-0.830069,0.000000,3.191614,0.000000,-0.515779
LINE790,0.000000,-1.397783,0.000000,1.045289,0.000000,-1.036211
LINE791,69.681063,-0.832195,0.000000,1.057160,0.000000,-1.552719
LINE792,34.840701,-0.832194,0.000000,0.249761,0.000000,3.946876
LINE793,70.323478,-0.825280,70.278149,3.318130,0.000000,-1.567713
LINE794,0.000000,-1.246222,0.000000,3.295364,31.937460,1.244378
LINE795,0.000000,1.829438,34.718593,3.317836,0.000000,1.757872
LINE796,69.850685,-0.830069,0.000000,3.159732,0.000000,-1.012403
LINE797,0.000000,0.191148,0.000000,2.031767,0.000000,-0.436419
LINE798,69.681063,-0.832195,0.000000,1.293543,0.000000,-1.552146
LINE799,34.840701,-0.832194,0.000000,-0.341871,0.000000,1.675827
LINE800,70.323478,-0.825280,0.000000,3.347518,0.000000,1.722264
LINE801,0.000000,0.132233,70.278149,3.318130,0.000000,-1.430081
LINE802,0.000000,-1.384039,0.000000,3.396008,31.937460,1.244378
LINE803,0.000000,2.674543,34.718593,3.317836,0.000000,4.696485
LINE804,69.850685,-0.830069,0.000000,3.167664,0.000000,1.240858
LINE805,0.000000,2.217844,0.000000,-0.369415,0.000000,-1.260747
LINE806,69.681063,-0.832195,0.000000,1.350971,0.000000,-1.556944
LINE807,34.840701,-0.832194,0.000000,-0.722646,0.000000,4.594244
LINE808,70.323478,-0.825280,0.000000,3.318485,0.000000,4.351145
LINE809,0.000000,0.145338,70.278149,3.318130,0.000000,-1.463958
LINE810,0.000000,1.406307,0.000000,4.573127,0.000000,4.311465
LINE811,0.000000,4.267959,0.000000,3.403108,31.937460,1.244378
LINE812,0.000000,3.065770,34.718593,3.317836,0.000000,-0.078704
LINE813,69.850685,-0.830069,0.000000,3.271904,0.000000,0.744669
LINE814,0.000000,2.876041,0.000000,0.314730,0.000000,-1.260829
LINE815,69.681063,-0.832195,0.000000,1.053147,0.000000,-1.552332
LINE816,34.840701,-0.832194,0.000000,-1.493828,0.000000,4.087035
LINE817,70.323478,-0.825280,0.000000,3.356428,0.000000,1.658800
LINE818,0.000000,0.012765,70.278149,3.318130,0.000000,-1.472977
LINE819,0.000000,0.000000,0.000000,0.000000,0.000000,0.000000
LINE820,0.000000,0.339513,0.000000,0.339513,31.937460,1.244378
LINE821,69.850685,-0.830069,0.000000,3.211435,0.000000,-0.329627
LINE822,0.000000,0.083624,0.000000,3.595195,0.000000,-0.556440
LINE823,69.681063,-0.832195,0.000000,1.389358,0.000000,-1.540962
LINE824,70.323478,-0.825280,0.000000,3.039973,0.000000,4.483082
LINE825,0.000000,-0.068657,70.278149,3.318130,0.000000,-1.512730
LINE826,0.000000,-0.800739,0.000000,-0.800739,0.000000,0.589063
LINE827,0.000000,3.934807,0.000000,3.653545,31.937460,1.244378
LINE828,69.850685,-0.830069,0.000000,3.209167,0.000000,1.301268
LINE829,0.000000,3.271536,0.000000,2.330880,0.000000,-0.673679
LINE830,69.681063,-0.832195,0.000000,1.297889,0.000000,-1.529098
LINE831,70.323478,-0.825280,0.000000,1.450172,0.000000,4.655157
LINE832,0.000000,0.054907,70.278149,3.318130,0.000000,-1.518789
LINE833,0.000000,2.006239,0.000000,2.758380,0.000000,4.612957
LINE834,0.000000,2.876719,0.000000,-0.334166,31.937460,1.244378
LINE835,69.850685,-0.830069,0.000000,3.264530,0.000000,1.439825
LINE836,69.681063,-0.832195,0.000000,2.346543,0.000000,-1.558372
LINE837,70.323478,-0.825280,0.000000,0.596349,0.000000,-1.568134
LINE838,0.000000,0.061945,70.278149,3.318130,0.000000,4.651689
LINE839,0.000000,4.180884,0.000000,3.119297,0.000000,1.056493
LINE840,69.850685,-0.830069,0.000000,3.268469,0.000000,1.462734
LINE841,69.681063,-0.832195,0.000000,-0.831772,0.000000,-1.543553
LINE842,70.323478,-0.825280,0.000000,0.754128,0.000000,4.710334
LINE843,0.000000,-0.295376,70.278149,3.318130,0.000000,4.594848
LINE844,0.000000,2.073077,0.000000,0.455776,0.000000,-0.315505
LINE845,0.000000,-0.201681,0.000000,-0.201681,0.000000,2.996186
LINE846,69.850685,-0.830069,0.000000,3.285669,0.000000,1.456045
LINE847,69.681063,-0.832195,0.000000,3.742490,0.000000,1.546008
LINE848,70.323478,-0.825280,0.000000,0.613912,0.000000,-1.555409
LINE849,0.000000,-0.358975,70.278149,3.318130,0.000000,4.569493
LINE850,0.000000,1.979104,0.000000,0.371016,0.000000,0.701245
LINE851,0.000000,0.000000,0.000000,0.000000,0.000000,0.000000
LINE852,69.850685,-0.830069,0.000000,3.196447,0.000000,1.463172
LINE853,69.681063,-0.832195,0.000000,4.211385,0.000000,1.559821
LINE854,70.323478,-0.825280,0.000000,0.659479,0.000000,-1.551067
LINE855,0.000000,-0.451336,70.278149,3.318130,0.000000,4.544760
LINE856,0.000000,1.744345,0.000000,0.444860,0.000000,0.798959
LINE857,0.000000,2.204984,0.000000,0.267393,0.000000,1.713507
LINE858,69.850685,-0.830069,0.000000,3.322070,0.000000,1.225242
LINE859,34.825224,-0.832303,0.000000,2.605393,0.000000,-1.556808
LINE860,34.855839,-0.832086,0.000000,0.087038,0.000000,1.490589
LINE861,70.323478,-0.825280,0.000000,0.614499,0.000000,-1.550305
LINE862,0.000000,-0.445049,70.278149,3.318130,0.000000,4.537859
LINE863,0.000000,1.134679,0.000000,0.543948,0.000000,0.614039
LINE864,0.000000,0.546895,0.000000,-0.354638,0.000000,3.283454
LINE865,69.850685,-0.830069,0.000000,3.371051,0.000000,-1.259765
LINE866,70.323478,-0.825280,0.000000,0.561373,0.000000,-1.549121
LINE867,0.000000,-0.389269,70.278149,3.318130,0.000000,4.551394
LINE868,0.000000,1.533959,0.000000,0.394560,0.000000,1.238860
LINE869,0.000000,-0.201681,0.000000,-0.201681,0.000000,2.996186
LINE870,69.850685,-0.830069,0.000000,3.200396,0.000000,-1.553064
LINE871,70.323478,-0.825280,0.000000,0.565739,0.000000,-1.546612
LINE872,0.000000,-0.852917,35.145669,3.318178,0.000000,4.566904
LINE873,0.000000,1.503278,35.132480,3.318082,0.000000,4.699503
LINE874,0.000000,0.565212,0.000000,0.022464,0.000000,1.806857
LINE875,0.000000,1.084048,0.000000,0.505534,0.000000,-0.773367
LINE876,69.850685,-0.830069,0.000000,3.063848,0.000000,4.702537
LINE877,70.323478,-0.825280,0.000000,0.545939,0.000000,-1.544049
LINE878,0.000000,-0.852917,35.145669,3.318178,0.000000,3.074074
LINE879,0.000000,0.396129,35.132480,3.318082,0.000000,-0.067519
LINE880,0.000000,-1.095470,0.000000,-1.095470,0.000000,4.569226
LINE881,0.000000,1.122750,0.000000,4.614465,0.000000,4.614465
LINE882,69.850685,-0.830069,0.000000,3.074191,0.000000,4.699664
LINE883,70.323478,-0.825280,0.000000,0.538162,0.000000,-1.548807
LINE884,0.000000,-1.050312,35.145669,3.318178,0.000000,4.691711
LINE885,0.000000,0.000000,35.132480,3.318082,0.000000,0.000000
LINE886,69.850685,-0.830069,0.000000,-0.051817,0.000000,1.391766
LINE887,35.163879,-0.825239,0.000000,0.656456,0.000000,-1.555257
LINE888,35.159599,-0.825321,0.000000,3.934887,0.000000,4.446523
LINE889,0.000000,0.000000,35.145669,3.318178,0.000000,4.668304
LINE890,69.850685,-0.830069,0.000000,3.282420,0.000000,4.651881
LINE891,35.163879,-0.825239,0.000000,0.741666,0.000000,-1.566361
LINE892,35.159599,-0.825321,0.000000,4.413984,0.000000,4.413995
LINE893,0.000000,0.396129,35.145669,3.318178,0.000000,4.676110
LINE894,34.946508,-0.829920,0.000000,0.757408,0.000000,-1.375737
LINE895,34.904178,-0.830219,0.000000,2.393744,0.000000,2.479913
LINE896,35.163879,-0.825239,0.000000,0.693980,0.000000,-1.566153
LINE897,35.159599,-0.825321,0.000000,0.011071,0.000000,-1.506645
LINE898,0.000000,0.000000,35.145669,3.318178,0.000000,0.000000
LINE899,34.946508,-0.829920,0.000000,4.688122,0.000000,4.428026
LINE900,35.163879,-0.825239,0.000000,1.345565,0.000000,4.625355
LINE901,35.163879,-0.825239,0.000000,4.464932,0.000000,1.572857
LINE902,35.163879,-0.825239,0.000000,3.656935,0.000000,1.619019
LINE903,35.163879,-0.825239,0.000000,3.240587,0.000000,1.914905
LINE904,35.163879,-0.825239,0.000000,3.602664,0.000000,1.544175
LINE905,35.163879,-0.825239,0.000000,-0.337856,0.000000,-1.479939
